CM 1980s Small Cargo Ship Model
CM Dimensions based on typical short-sea trader
CM All coordinates from waterline (Z=0)
CM Length: 100m, Beam: 15m, Draft: 5.5m
CM
CE
CM
CM === HULL DEFINITION ===
CM Hull extends from waterline (Z=0) down to keel (Z=-5.5m)
CM Bow section (0 to 25m) - tapered
GW 1 9 25 1 9 1 0 0 0 0 12.5 0 0 7.5 0 0 0 0 0 0 -2.75 0 0 -5.5 0
GW 2 9 25 1 1 9 12.5 0 0 12.5 12.5 0 12.5 7.5 0 12.5 0 0 12.5 -2.75 0 12.5 -5.5 0
GW 3 9 25 1 1 9 12.5 25 0 12.5 25 0 12.5 25 0 12.5 25 0 12.5 25 0 12.5 25 0
GW 4 9 25 1 9 1 12.5 25 0 7.5 25 0 0 25 0 0 25 0 0 25 0 0 25 0
GW 5 1 25 9 9 1 0 25 0 -7.5 25 0 -12.5 25 0 -12.5 25 0 -12.5 25 0 -12.5 25 0
GW 6 1 25 9 1 9 -12.5 25 0 -12.5 12.5 0 -12.5 7.5 0 -12.5 0 0 -12.5 -2.75 0 -12.5 -5.5 0
GW 7 1 25 9 9 1 -12.5 12.5 0 -7.5 0 0 0 0 0 0 0 0 0 0 0 0 0 0
GW 8 9 25 1 9 1 0 12.5 0 0 7.5 0 0 0 0 0 -2.75 0 0 -5.5 0
CM
CM Mid-hull section (25m to 75m) - parallel
GW 9 50 1 25 1 1 25 0 7.5 75 0 7.5
GW 10 50 1 25 1 1 25 7.5 7.5 75 7.5 7.5
GW 11 50 1 25 1 1 25 7.5 0 75 7.5 0
GW 12 50 1 25 1 1 25 7.5 -2.75 75 7.5 -2.75
GW 13 50 1 25 1 1 25 7.5 -5.5 75 7.5 -5.5
GW 14 50 1 25 1 1 25 0 -5.5 75 0 -5.5
GW 15 50 1 25 1 1 25 -7.5 -5.5 75 -7.5 -5.5
GW 16 50 1 25 1 1 25 -7.5 -2.75 75 -7.5 -2.75
GW 17 50 1 25 1 1 25 -7.5 0 75 -7.5 0
GW 18 50 1 25 1 1 25 -7.5 7.5 75 -7.5 7.5
GW 19 50 1 25 1 1 25 0 7.5 75 0 7.5
CM
CM Stern section (75m to 100m) - tapered and raised
GW 20 9 25 1 9 1 75 0 7.5 87.5 0 5 100 0 0 100 0 0 100 0 0 100 0 0
GW 21 9 25 1 1 9 87.5 0 5 87.5 7.5 5 87.5 7.5 2.5 87.5 7.5 0 87.5 7.5 -2.75 87.5 7.5 -4
GW 22 9 25 1 1 9 100 0 0 100 5 0 100 5 0 100 5 0 100 5 0 100 5 0
GW 23 9 25 1 9 1 100 5 0 100 2.5 0 100 0 0 100 0 0 100 0 0 100 0 0
GW 24 1 25 9 9 1 100 0 0 100 -2.5 0 100 -5 0 100 -5 0 100 -5 0 100 -5 0
GW 25 1 25 9 1 9 100 -5 0 87.5 -7.5 0 87.5 -7.5 -2.75 87.5 -7.5 -4 87.5 -7.5 2.5 87.5 -7.5 5
GW 26 1 25 9 9 1 87.5 -7.5 5 87.5 0 5 75 0 7.5 75 0 7.5 75 0 7.5 75 0 7.5
CM
CM === WHEELHOUSE/SUPERSTRUCTURE ===
CM Located at stern (75m to 95m), from deck level up
CM Main deck to bridge: 15m height
GW 27 20 1 15 1 1 75 0 0 95 0 15
GW 28 20 1 15 1 1 95 0 15 95 6 15 95 6 0 75 6 0 75 0 0 75 0 15
GW 29 20 1 15 1 1 75 6 15 95 6 15
GW 30 20 1 15 1 1 95 6 15 95 6 0 75 6 0 75 6 15
GW 31 1 15 20 1 1 95 0 0 95 0 15
GW 32 1 15 20 1 1 95 -6 0 95 -6 15 95 0 15 95 0 0 75 0 0 75 -6 0 75 -6 15 75 0 15
GW 33 1 15 20 1 1 75 -6 15 95 -6 15
GW 34 1 15 20 1 1 75 -6 0 75 -6 15
CM
CM === FUNNEL ===
CM Located amidships on superstructure
CM Height: 10m above wheelhouse (25m above waterline)
GW 35 1 10 10 1 1 82 -2 15 82 2 25
GW 36 10 1 10 1 1 82 2 25 86 2 25 86 2 15 82 2 15
GW 37 1 10 10 1 1 86 2 25 86 -2 15
GW 38 10 1 10 1 1 86 -2 15 82 -2 15 82 -2 25 86 -2 25
GW 39 4 4 1 1 1 82 -2 25 84 0 25 86 -2 25 84 0 25 82 2 25 86 2 25
CM
CM === MAST (Simple vertical element) ===
GW 40 1 1 8 1 1 85 0 15 85 0 23
CM
CM Wire definitions for electrical properties
CM Assuming steel construction
GW 100 1 1 1 1 1 0 0 -5.5 0 0 -5.5
CM
GE 0
EK -1
EX 0 0 1 0 1.0 0 0 0 0 0
FR 0 1 0 0 300 0
RP 0 91 1 1000 0 0 1 1 0
EN